<?xml version="1.0" encoding="UTF-8"?>

<!-- generated on 2025-04-18 15:33:26 by Eclipse SUMO netedit Version 1.22.0
<neteditConfiguration xmlns:xsi="http://www.w3.org/2001/XMLSchema-instance" xsi:noNamespaceSchemaLocation="http://sumo.dlr.de/xsd/neteditConfiguration.xsd">

    <input>
        <sumo-net-file value="C:\Users\zakaria.hebbal\Downloads\sumo-main\sumo-main\tools\rouenped\osm.net.xml"/>
    </input>

    <output>
        <output-file value="C:\Users\zakaria.hebbal\Downloads\sumo-main\sumo-main\tools\rouenped\osm.net.xml"/>
        <output.street-names value="true"/>
    </output>

    <processing>
        <geometry.min-radius.fix.railways value="false"/>
        <geometry.max-grade.fix value="false"/>
        <offset.disable-normalization value="true"/>
        <lefthand value="0"/>
    </processing>

    <junctions>
        <no-internal-links value="false"/>
        <no-turnarounds value="true"/>
        <junctions.corner-detail value="5"/>
        <junctions.limit-turn-speed value="5.50"/>
        <rectangular-lane-cut value="0"/>
    </junctions>

    <pedestrian>
        <walkingareas value="1"/>
    </pedestrian>

</neteditConfiguration>
-->

<net version="1.20" junctionCornerDetail="5" walkingareas="true" limitTurnSpeed="5.50" xmlns:xsi="http://www.w3.org/2001/XMLSchema-instance" xsi:noNamespaceSchemaLocation="http://sumo.dlr.de/xsd/net_file.xsd">

    <location netOffset="-118115.16,-6339935.64" convBoundary="0.00,0.00,2290.99,1128.16" origBoundary="1.061047,49.382038,1.081627,49.388635" projParameter="+proj=merc +a=6378137 +b=6378137 +lat_ts=0.0 +lon_0=0.0 +x_0=0.0 +y_0=0 +k=1.0 +units=m +nadgrids=@null +wktext +no_defs"/>

    <type id="highway.cycleway" priority="1" numLanes="1" speed="5.56" allow="bicycle" oneway="0" width="2.00"/>
    <type id="highway.footway" priority="1" numLanes="1" speed="2.78" allow="pedestrian" oneway="1" width="2.00"/>
    <type id="highway.path" priority="1" numLanes="1" speed="5.56" allow="pedestrian bicycle" oneway="0" width="2.00"/>
    <type id="highway.pedestrian" priority="1" numLanes="1" speed="2.78" allow="pedestrian" oneway="1" width="2.00"/>
    <type id="highway.residential" priority="3" numLanes="1" speed="13.89" disallow="pedestrian tram rail_urban rail rail_electric rail_fast ship container cable_car subway aircraft wheelchair scooter drone" oneway="0" sidewalkWidth="2.00"/>
    <type id="highway.service" priority="1" numLanes="1" speed="5.56" allow="pedestrian delivery bicycle" oneway="0"/>
    <type id="highway.steps" priority="1" numLanes="1" speed="1.39" allow="pedestrian" oneway="1" width="2.00"/>
    <type id="highway.tertiary" priority="10" numLanes="1" speed="13.89" disallow="pedestrian tram rail_urban rail rail_electric rail_fast ship container cable_car subway aircraft wheelchair scooter drone" oneway="0" sidewalkWidth="3.00"/>
    <type id="highway.unclassified" priority="4" numLanes="1" speed="13.89" disallow="pedestrian tram rail_urban rail rail_electric rail_fast ship container cable_car subway aircraft wheelchair scooter drone" oneway="0" sidewalkWidth="2.00"/>
    <type id="railway.tram" priority="17" numLanes="1" speed="13.89" allow="tram" oneway="1"/>

    <edge id=":10675013082_0" function="internal">
        <lane id=":10675013082_0_0" index="0" allow="bicycle" speed="4.94" length="4.90" width="2.00" shape="2227.53,583.49 2226.58,582.44 2225.57,581.90 2224.48,581.86 2223.32,582.34"/>
    </edge>
    <edge id=":10675013082_1" function="internal">
        <lane id=":10675013082_1_0" index="0" allow="pedestrian bicycle" speed="5.56" length="9.54" width="2.00" shape="2227.53,583.49 2222.08,575.65"/>
    </edge>
    <edge id=":10675013082_2" function="internal">
        <lane id=":10675013082_2_0" index="0" allow="bicycle" speed="5.56" length="7.52" width="2.00" shape="2227.53,583.49 2226.08,581.11 2225.40,579.20 2225.47,577.76 2226.29,576.80"/>
    </edge>
    <edge id=":10675013082_3" function="internal">
        <lane id=":10675013082_3_0" index="0" disallow="pedestrian tram rail_urban rail rail_electric rail_fast ship container cable_car subway aircraft wheelchair scooter drone" speed="5.56" length="5.41" shape="2227.95,579.54 2223.32,582.34"/>
    </edge>
    <edge id=":10675013082_4" function="internal">
        <lane id=":10675013082_4_0" index="0" allow="bicycle" speed="5.56" length="1.50" width="2.00" shape="2227.95,579.54 2226.74,579.80 2226.49,579.70"/>
    </edge>
    <edge id=":10675013082_7" function="internal">
        <lane id=":10675013082_7_0" index="0" allow="bicycle" speed="5.56" length="6.10" width="2.00" shape="2226.49,579.70 2225.36,579.24 2223.81,577.86 2222.08,575.65"/>
    </edge>
    <edge id=":10675013082_5" function="internal">
        <lane id=":10675013082_5_0" index="0" allow="bicycle" speed="4.77" length="4.58" width="2.00" shape="2221.66,579.60 2222.52,578.85 2222.88,577.94 2222.73,576.87 2222.08,575.65"/>
    </edge>
    <edge id=":10675013082_6" function="internal">
        <lane id=":10675013082_6_0" index="0" disallow="pedestrian tram rail_urban rail rail_electric rail_fast ship container cable_car subway aircraft wheelchair scooter drone" speed="5.56" length="5.41" shape="2221.66,579.60 2226.29,576.80"/>
    </edge>
    <edge id=":10675013082_c0" function="crossing" crossingEdges="-1147225780#0 1147225780#0">
        <lane id=":10675013082_c0_0" index="0" allow="pedestrian" speed="2.78" length="6.40" width="4.00" shape="2223.75,576.46 2227.06,581.94" outlineShape="2225.46,575.43 2228.77,580.91 2226.71,584.06 2228.35,582.91 2228.76,580.98 2225.35,582.98 2222.04,577.50 2225.46,575.43 2222.91,575.08 2221.27,576.22"/>
    </edge>
    <edge id=":10675013082_w0" function="walkingarea">
        <lane id=":10675013082_w0_0" index="0" allow="pedestrian" speed="2.78" length="1.61" width="4.00" shape="2226.71,584.06 2228.35,582.91 2228.77,580.91 2225.35,582.98"/>
    </edge>
    <edge id=":10675013082_w1" function="walkingarea">
        <lane id=":10675013082_w1_0" index="0" allow="pedestrian" speed="2.78" length="1.85" width="4.00" shape="2222.04,577.50 2225.46,575.43 2222.91,575.08 2221.26,576.22"/>
    </edge>
    <edge id=":10675013084_0" function="internal">
        <lane id=":10675013084_0_0" index="0" disallow="pedestrian tram rail_urban rail rail_electric rail_fast ship container cable_car subway aircraft wheelchair scooter drone" speed="7.29" length="8.35" shape="2167.86,615.92 2166.38,617.18 2165.46,618.83 2165.10,620.87 2165.29,623.30"/>
    </edge>
    <edge id=":10675013084_1" function="internal">
        <lane id=":10675013084_1_0" index="0" disallow="pedestrian tram rail_urban rail rail_electric rail_fast ship container cable_car subway aircraft wheelchair scooter drone" speed="3.65" length="4.67" shape="2167.86,615.92 2166.42,615.86 2165.67,615.38 2165.59,614.49 2166.21,613.18"/>
    </edge>
    <edge id=":10675013084_2" function="internal">
        <lane id=":10675013084_2_0" index="0" disallow="pedestrian tram rail_urban rail rail_electric rail_fast ship container cable_car subway aircraft wheelchair scooter drone" speed="7.85" length="8.55" shape="2158.10,612.54 2160.34,613.62 2162.43,614.08 2164.39,613.94 2166.21,613.18"/>
    </edge>
    <edge id=":10675013084_3" function="internal">
        <lane id=":10675013084_3_0" index="0" disallow="pedestrian tram rail_urban rail rail_electric rail_fast ship container cable_car subway aircraft wheelchair scooter drone" speed="11.32" length="13.35" shape="2158.10,612.54 2160.76,614.54 2162.85,617.00 2164.35,619.92 2165.29,623.30"/>
    </edge>
    <edge id=":10710011964_0" function="internal">
        <lane id=":10710011964_0_0" index="0" disallow="pedestrian tram rail_urban rail rail_electric rail_fast ship container cable_car subway aircraft wheelchair scooter drone" speed="9.92" length="6.74" shape="1117.89,563.86 1115.96,564.42 1114.58,564.85 1113.45,565.58 1112.23,567.08"/>
    </edge>
    <edge id=":10710011964_1" function="internal">
        <lane id=":10710011964_1_0" index="0" disallow="pedestrian tram rail_urban rail rail_electric rail_fast ship container cable_car subway aircraft wheelchair scooter drone" speed="13.89" length="6.81" shape="1114.95,560.88 1114.32,562.80 1113.88,564.12 1113.29,565.37 1112.23,567.08"/>
    </edge>
    <edge id=":10710011966_0" function="internal">
        <lane id=":10710011966_0_0" index="0" disallow="pedestrian tram rail_urban rail rail_electric rail_fast ship container cable_car subway aircraft wheelchair scooter drone" speed="13.89" length="6.77" shape="1139.12,560.19 1137.11,560.28 1135.74,560.39 1134.38,560.58 1132.39,560.90"/>
    </edge>
    <edge id=":10710011966_c0" function="crossing" crossingEdges="1151278800#2">
        <lane id=":10710011966_c0_0" index="0" allow="pedestrian" speed="2.78" length="3.20" width="4.00" shape="1135.99,561.93 1135.47,558.78" outlineShape="1134.01,562.26 1133.50,559.10 1137.20,556.95 1136.13,556.60 1133.54,559.06 1137.45,558.45 1137.96,561.61 1137.15,562.53 1137.78,561.85 1136.75,561.91 1135.90,561.99 1135.06,562.09"/>
    </edge>
    <edge id=":10710011966_w0" function="walkingarea">
        <lane id=":10710011966_w0_0" index="0" allow="pedestrian" speed="2.78" length="2.46" width="4.00" shape="1138.03,557.23 1136.13,556.60 1133.50,559.10 1137.45,558.45"/>
    </edge>
    <edge id=":10710011966_w1" function="walkingarea">
        <lane id=":10710011966_w1_0" index="0" allow="pedestrian" speed="2.78" length="2.53" width="4.00" shape="1134.01,562.26 1133.59,563.64 1135.46,564.35 1137.78,561.85 1136.75,561.91 1135.90,561.99 1135.06,562.09 1134.03,562.25"/>
    </edge>
    <edge id=":10710011972_0" function="internal">
        <lane id=":10710011972_0_0" index="0" allow="bicycle" speed="7.72" length="5.87" width="1.00" shape="1149.44,562.10 1148.63,561.60 1147.42,561.26 1145.80,561.10 1143.77,561.10"/>
    </edge>
    <edge id=":10710011972_1" function="internal">
        <lane id=":10710011972_1_0" index="0" disallow="pedestrian tram rail_urban rail rail_electric rail_fast ship container cable_car subway aircraft wheelchair scooter drone" speed="13.89" length="6.65" shape="1150.33,559.26 1148.38,559.58 1147.05,559.78 1145.70,559.90 1143.73,560.00"/>
    </edge>
    <edge id=":10710019432_0" function="internal">
        <lane id=":10710019432_0_0" index="0" disallow="pedestrian tram rail_urban rail rail_electric rail_fast ship container cable_car subway aircraft wheelchair scooter drone" speed="13.89" length="0.26" shape="1160.32,557.65 1160.24,557.65 1160.19,557.65 1160.14,557.66 1160.06,557.67"/>
    </edge>
    <edge id=":11206273096_0" function="internal">
        <lane id=":11206273096_0_0" index="0" allow="pedestrian delivery bicycle" speed="3.65" length="4.67" shape="2045.16,937.95 2045.25,936.51 2045.74,935.77 2046.63,935.71 2047.92,936.35"/>
    </edge>
    <edge id=":11206273098_0" function="internal">
        <lane id=":11206273098_0_0" index="0" allow="delivery bicycle" speed="6.07" length="8.13" shape="2155.28,1118.13 2153.25,1119.10 2151.43,1119.14 2149.84,1118.28 2148.46,1116.50"/>
    </edge>
    <edge id=":11206273098_1" function="internal">
        <lane id=":11206273098_1_0" index="0" disallow="pedestrian tram rail_urban rail rail_electric rail_fast ship container cable_car subway aircraft wheelchair scooter drone" speed="3.65" length="4.67" shape="2155.28,1118.13 2153.84,1118.13 2153.06,1117.68 2152.95,1116.79 2153.51,1115.47"/>
    </edge>
    <edge id=":11206273098_2" function="internal">
        <lane id=":11206273098_2_0" index="0" allow="delivery bicycle" speed="3.90" length="2.71" shape="2151.24,1114.92 2151.70,1115.51 2152.23,1115.80 2152.84,1115.79 2153.51,1115.47"/>
    </edge>
    <edge id=":11206273098_3" function="internal">
        <lane id=":11206273098_3_0" index="0" allow="pedestrian delivery bicycle" speed="3.65" length="4.67" shape="2151.24,1114.92 2151.14,1116.36 2150.64,1117.10 2149.75,1117.15 2148.46,1116.50"/>
    </edge>
    <edge id=":11206273098_w0" function="walkingarea">
        <lane id=":11206273098_w0_0" index="0" allow="pedestrian" speed="2.78" length="3.20" width="3.20" shape="2152.63,1114.13 2149.85,1115.71 2147.07,1117.29"/>
    </edge>
    <edge id=":11492254552_0" function="internal">
        <lane id=":11492254552_0_0" index="0" allow="pedestrian delivery bicycle" speed="4.88" length="5.22" shape="1380.66,158.03 1379.88,156.78 1378.93,156.16 1377.78,156.17 1376.46,156.79"/>
    </edge>
    <edge id=":11492254552_1" function="internal">
        <lane id=":11492254552_1_0" index="0" allow="pedestrian delivery bicycle" speed="5.56" length="10.29" shape="1380.66,158.03 1379.78,155.17 1379.81,152.70 1380.75,150.60 1382.60,148.88"/>
    </edge>
    <edge id=":11492254552_2" function="internal">
        <lane id=":11492254552_2_0" index="0" allow="pedestrian delivery bicycle" speed="3.65" length="4.67" shape="1380.66,158.03 1380.91,156.61 1381.48,155.92 1382.37,155.96 1383.59,156.74"/>
    </edge>
    <edge id=":11492254552_3" function="internal">
        <lane id=":11492254552_3_0" index="0" allow="pedestrian delivery bicycle" speed="5.56" length="5.76" shape="1384.37,151.54 1383.43,152.46 1382.99,153.63 1383.04,155.06 1383.59,156.74"/>
    </edge>
    <edge id=":11492254552_4" function="internal">
        <lane id=":11492254552_4_0" index="0" allow="pedestrian delivery bicycle" speed="5.56" length="9.49" shape="1384.37,151.54 1376.46,156.79"/>
    </edge>
    <edge id=":11492254552_5" function="internal">
        <lane id=":11492254552_5_0" index="0" allow="pedestrian delivery bicycle" speed="3.65" length="4.67" shape="1384.37,151.54 1382.93,151.54 1382.15,151.10 1382.04,150.21 1382.60,148.88"/>
    </edge>
    <edge id=":11492254552_6" function="internal">
        <lane id=":11492254552_6_0" index="0" allow="pedestrian delivery bicycle" speed="5.56" length="9.49" shape="1374.69,154.13 1382.60,148.88"/>
    </edge>
    <edge id=":11492254552_7" function="internal">
        <lane id=":11492254552_7_0" index="0" allow="pedestrian delivery bicycle" speed="5.56" length="11.05" shape="1374.69,154.13 1377.49,152.80 1379.91,152.79 1381.95,154.10 1383.59,156.74"/>
    </edge>
    <edge id=":11492254552_8" function="internal">
        <lane id=":11492254552_8_0" index="0" allow="pedestrian delivery bicycle" speed="3.65" length="4.67" shape="1374.69,154.13 1376.13,154.13 1376.91,154.58 1377.02,155.46 1376.46,156.79"/>
    </edge>
    <edge id=":11492254552_w0" function="walkingarea">
        <lane id=":11492254552_w0_0" index="0" allow="pedestrian" speed="2.78" length="7.10" width="6.40" shape="1379.20,158.67 1385.05,156.09 1384.61,154.67 1384.58,154.09 1384.68,153.60 1384.90,153.20 1385.25,152.88 1381.71,147.54 1373.80,152.80 1377.34,158.13 1378.10,157.82 1378.43,157.85 1378.72,158.00 1378.98,158.27"/>
    </edge>
    <edge id=":11492254553_0" function="internal">
        <lane id=":11492254553_0_0" index="0" allow="pedestrian delivery bicycle" speed="3.65" length="4.67" shape="1390.88,173.31 1390.64,174.73 1390.06,175.41 1389.17,175.37 1387.96,174.59"/>
    </edge>
    <edge id=":11572241984_0" function="internal">
        <lane id=":11572241984_0_0" index="0" allow="pedestrian bicycle" speed="2.89" length="2.92" width="2.00" shape="2263.46,0.65 2264.05,-0.04 2264.57,-0.22 2265.04,0.09 2265.44,0.89"/>
    </edge>
    <edge id=":11572241986_0" function="internal">
        <lane id=":11572241986_0_0" index="0" allow="pedestrian bicycle" speed="5.56" length="17.21" width="2.00" shape="2262.22,16.46 2246.48,23.41"/>
    </edge>
    <edge id=":11572241986_1" function="internal">
        <lane id=":11572241986_1_0" index="0" allow="pedestrian bicycle" speed="4.64" length="8.85" width="2.00" shape="2262.22,16.46 2259.95,16.54 2258.31,15.15 2257.78,13.07 2258.85,11.06"/>
    </edge>
    <edge id=":11572241986_2" function="internal">
        <lane id=":11572241986_2_0" index="0" allow="pedestrian bicycle" speed="2.89" length="2.92" width="2.00" shape="2262.22,16.46 2261.33,16.30 2260.90,15.95 2260.93,15.39 2261.41,14.63"/>
    </edge>
    <edge id=":11572241986_3" function="internal">
        <lane id=":11572241986_3_0" index="0" allow="pedestrian bicycle" speed="4.63" length="8.81" width="2.00" shape="2260.14,12.59 2257.79,14.76 2257.23,15.83 2258.43,15.78 2261.41,14.63"/>
    </edge>
    <edge id=":11572241986_4" function="internal">
        <lane id=":11572241986_4_0" index="0" allow="pedestrian bicycle" speed="5.56" length="17.48" width="2.00" shape="2260.14,12.59 2257.04,15.35 2253.59,18.45 2250.01,21.32 2246.48,23.41"/>
    </edge>
    <edge id=":11572241986_5" function="internal">
        <lane id=":11572241986_5_0" index="0" allow="pedestrian bicycle" speed="2.89" length="2.92" width="2.00" shape="2260.14,12.59 2259.24,12.69 2258.73,12.47 2258.60,11.92 2258.85,11.06"/>
    </edge>
    <edge id=":11572241986_6" function="internal">
        <lane id=":11572241986_6_0" index="0" allow="pedestrian bicycle" speed="5.56" length="16.92" width="2.00" shape="2245.67,21.58 2249.12,19.54 2252.54,16.77 2255.82,13.78 2258.85,11.06"/>
    </edge>
    <edge id=":11572241986_7" function="internal">
        <lane id=":11572241986_7_0" index="0" allow="pedestrian bicycle" speed="5.56" length="17.21" width="2.00" shape="2245.67,21.58 2261.41,14.63"/>
    </edge>
    <edge id=":11572241986_8" function="internal">
        <lane id=":11572241986_8_0" index="0" allow="pedestrian bicycle" speed="2.89" length="2.92" width="2.00" shape="2245.67,21.58 2246.56,21.73 2246.99,22.09 2246.96,22.65 2246.48,23.41"/>
    </edge>
    <edge id=":11572241986_w0" function="walkingarea">
        <lane id=":11572241986_w0_0" index="0" allow="pedestrian" speed="2.78" length="10.76" width="4.00" shape="2262.63,17.37 2261.01,13.71 2260.78,13.35 2258.20,10.29 2255.57,12.69 2253.72,14.61 2252.20,16.23 2250.58,17.67 2248.42,19.10 2245.27,20.66 2246.88,24.32"/>
    </edge>
    <edge id=":11572522414_0" function="internal">
        <lane id=":11572522414_0_0" index="0" allow="pedestrian bicycle" speed="3.57" length="3.84" width="1.00" shape="2064.16,184.75 2063.50,183.73 2062.82,183.31 2062.12,183.52 2061.40,184.34"/>
    </edge>
    <edge id=":11572522414_1" function="internal">
        <lane id=":11572522414_1_0" index="0" allow="pedestrian bicycle" speed="5.56" length="7.68" width="1.00" shape="2064.16,184.75 2060.79,177.86"/>
    </edge>
    <edge id=":11572522414_2" function="internal">
        <lane id=":11572522414_2_0" index="0" allow="pedestrian bicycle" speed="2.04" length="1.46" width="1.00" shape="2064.16,184.75 2064.22,184.31 2064.39,184.08 2064.67,184.09 2065.06,184.31"/>
    </edge>
    <edge id=":11572522414_3" function="internal">
        <lane id=":11572522414_3_0" index="0" allow="pedestrian bicycle" speed="5.56" length="7.68" width="1.00" shape="2061.69,177.42 2065.06,184.31"/>
    </edge>
    <edge id=":11572522414_4" function="internal">
        <lane id=":11572522414_4_0" index="0" allow="pedestrian bicycle" speed="5.56" length="7.26" width="1.00" shape="2061.69,177.42 2062.35,179.23 2062.52,180.99 2062.20,182.69 2061.40,184.34"/>
    </edge>
    <edge id=":11572522414_5" function="internal">
        <lane id=":11572522414_5_0" index="0" allow="pedestrian bicycle" speed="2.04" length="1.46" width="1.00" shape="2061.69,177.42 2061.63,177.86 2061.46,178.08 2061.18,178.08 2060.79,177.86"/>
    </edge>
    <edge id=":11572522414_6" function="internal">
        <lane id=":11572522414_6_0" index="0" allow="pedestrian bicycle" speed="5.56" length="5.75" width="1.00" shape="2059.72,183.26 2060.58,181.69 2061.04,180.27 2061.11,178.99 2060.79,177.86"/>
    </edge>
    <edge id=":11572522414_7" function="internal">
        <lane id=":11572522414_7_0" index="0" allow="pedestrian bicycle" speed="4.99" length="7.46" width="1.00" shape="2059.72,183.26 2061.08,181.73 2062.43,181.39 2063.75,182.25 2065.06,184.31"/>
    </edge>
    <edge id=":11572522414_8" function="internal">
        <lane id=":11572522414_8_0" index="0" allow="pedestrian bicycle" speed="2.89" length="2.92" width="2.00" shape="2059.72,183.26 2060.55,182.90 2061.10,182.96 2061.39,183.44 2061.40,184.34"/>
    </edge>
    <edge id=":11572522414_w0" function="walkingarea">
        <lane id=":11572522414_w0_0" index="0" allow="pedestrian" speed="2.78" length="5.10" width="4.00" shape="2063.71,184.97 2065.51,184.09 2062.14,177.20 2060.34,178.07 2060.47,179.19 2060.31,179.91 2059.98,180.74 2059.51,181.68 2058.88,182.72 2062.24,184.89 2062.77,184.33 2063.02,184.28 2063.26,184.36 2063.49,184.59"/>
    </edge>
    <edge id=":11748939431_0" function="internal">
        <lane id=":11748939431_0_0" index="0" disallow="pedestrian tram rail_urban rail rail_electric rail_fast ship container cable_car subway aircraft wheelchair scooter drone" speed="13.89" length="0.10" shape="1176.74,557.64 1176.67,557.63"/>
    </edge>
    <edge id=":11748939431_1" function="internal">
        <lane id=":11748939431_1_0" index="0" disallow="pedestrian tram rail_urban rail rail_electric rail_fast ship container cable_car subway aircraft wheelchair scooter drone" speed="13.89" length="0.10" shape="1176.67,554.45 1176.74,554.44"/>
    </edge>
    <edge id=":12015038823_w0" function="walkingarea">
        <lane id=":12015038823_w0_0" index="0" allow="pedestrian" speed="2.78" length="3.82" width="2.00" shape="756.10,490.49 757.63,489.21 757.36,486.55 755.96,485.13 752.67,489.75 754.45,490.67 754.94,490.06 755.20,489.96 755.49,490.00 755.78,490.17"/>
    </edge>
    <edge id=":12048143238_0" function="internal">
        <lane id=":12048143238_0_0" index="0" allow="pedestrian delivery bicycle" speed="5.56" length="7.71" shape="2220.98,740.32 2220.08,738.41 2220.01,736.67 2220.76,735.09 2222.33,733.69"/>
    </edge>
    <edge id=":12048143238_1" function="internal">
        <lane id=":12048143238_1_0" index="0" allow="pedestrian delivery bicycle" speed="3.90" length="2.57" shape="2224.11,736.35 2223.58,736.82 2223.33,737.34 2223.36,737.92 2223.65,738.56"/>
    </edge>
    <edge id=":12048143238_w0" function="walkingarea">
        <lane id=":12048143238_w0_0" index="0" allow="pedestrian" speed="2.78" length="4.25" width="6.40" shape="2219.64,741.20 2224.99,737.68 2221.45,732.35 2218.89,734.90 2218.35,736.33 2218.29,737.85 2218.72,739.47"/>
    </edge>
    <edge id=":12048143240_0" function="internal">
        <lane id=":12048143240_0_0" index="0" allow="pedestrian delivery bicycle" speed="5.56" length="5.06" shape="2290.88,768.25 2290.70,769.55 2290.22,770.67 2289.45,771.61 2288.38,772.36"/>
    </edge>
    <edge id=":12048143240_1" function="internal">
        <lane id=":12048143240_1_0" index="0" allow="pedestrian delivery bicycle" speed="4.02" length="1.69" shape="2286.85,769.55 2287.20,769.30 2287.46,768.99 2287.62,768.61 2287.68,768.18"/>
    </edge>
    <edge id=":12048143240_w0" function="walkingarea">
        <lane id=":12048143240_w0_0" index="0" allow="pedestrian" speed="2.78" length="3.55" width="6.40" shape="2292.48,768.29 2286.08,768.15 2289.14,773.77 2290.96,772.37 2291.60,771.51 2292.07,770.54 2292.36,769.47"/>
    </edge>
    <edge id=":12048143492_0" function="internal">
        <lane id=":12048143492_0_0" index="0" allow="pedestrian delivery bicycle" speed="3.65" length="4.67" shape="1866.31,540.73 1867.74,540.83 1868.49,541.33 1868.54,542.22 1867.89,543.51"/>
    </edge>
    <edge id=":12048143562_0" function="internal">
        <lane id=":12048143562_0_0" index="0" allow="pedestrian delivery bicycle" speed="3.65" length="4.67" shape="2244.07,537.28 2242.64,537.10 2241.92,536.57 2241.92,535.68 2242.63,534.42"/>
    </edge>
    <edge id=":12048143563_0" function="internal">
        <lane id=":12048143563_0_0" index="0" allow="pedestrian delivery bicycle" speed="3.65" length="4.67" shape="2279.31,515.91 2280.74,516.09 2281.46,516.62 2281.46,517.51 2280.75,518.77"/>
    </edge>
    <edge id=":12048143588_0" function="internal">
        <lane id=":12048143588_0_0" index="0" disallow="pedestrian tram rail_urban rail rail_electric rail_fast ship container cable_car subway aircraft wheelchair scooter drone" speed="13.89" length="0.46" shape="2129.99,623.84 2130.00,623.71 2130.01,623.61 2130.03,623.52 2130.08,623.39"/>
    </edge>
    <edge id=":12048143591_0" function="internal">
        <lane id=":12048143591_0_0" index="0" disallow="pedestrian tram rail_urban rail rail_electric rail_fast ship container cable_car subway aircraft wheelchair scooter drone" speed="3.71" length="4.54" shape="2290.74,831.06 2290.12,832.32 2289.40,832.80 2288.58,832.52 2287.66,831.47"/>
    </edge>
    <edge id=":12048143609_0" function="internal">
        <lane id=":12048143609_0_0" index="0" disallow="pedestrian tram rail_urban rail rail_electric rail_fast ship container cable_car subway aircraft wheelchair scooter drone" speed="13.89" length="0.46" shape="2285.39,816.75 2285.40,816.62 2285.41,816.52 2285.43,816.43 2285.47,816.30"/>
    </edge>
    <edge id=":12194831601_w0" function="walkingarea">
        <lane id=":12194831601_w0_0" index="0" allow="pedestrian" speed="2.78" length="4.03" width="2.00" shape="1079.09,748.63 1081.09,748.54 1081.22,747.70 1081.42,747.41 1081.70,747.19 1082.07,747.05 1082.52,746.99 1082.45,744.99 1081.62,744.85 1081.32,744.66 1081.11,744.37 1080.97,744.00 1080.92,743.55 1078.92,743.59 1078.77,744.45 1078.57,744.75 1078.28,744.97 1077.91,745.11 1077.45,745.17 1077.53,747.17 1078.37,747.31 1078.67,747.51 1078.89,747.80 1079.03,748.17"/>
    </edge>
    <edge id=":12194831604_w0" function="walkingarea">
        <lane id=":12194831604_w0_0" index="0" allow="pedestrian" speed="2.78" length="4.04" width="2.00" shape="1074.46,599.26 1075.51,597.55 1071.25,594.93 1070.20,596.64 1070.82,597.22 1070.96,597.56 1070.99,597.94 1070.90,598.34 1070.70,598.77 1072.43,599.77 1072.99,599.14 1073.32,598.99 1073.67,598.97 1074.05,599.05"/>
    </edge>
    <edge id=":12194831870_0" function="internal">
        <lane id=":12194831870_0_0" index="0" disallow="pedestrian tram rail_urban rail rail_electric rail_fast ship container cable_car subway aircraft wheelchair scooter drone" speed="13.89" length="5.06" shape="1105.94,747.40 1105.62,742.35"/>
    </edge>
    <edge id=":12194831870_1" function="internal">
        <lane id=":12194831870_1_0" index="0" disallow="pedestrian tram rail_urban rail rail_electric rail_fast ship container cable_car subway aircraft wheelchair scooter drone" speed="13.89" length="5.06" shape="1108.82,742.15 1109.13,747.20"/>
    </edge>
    <edge id=":12194831870_c0" function="crossing" crossingEdges="206566222#1 -206566222#1">
        <lane id=":12194831870_c0_0" index="0" allow="pedestrian" speed="2.78" length="6.40" width="4.00" shape="1104.18,744.98 1110.57,744.58" outlineShape="1104.06,742.98 1110.45,742.58 1110.70,746.57 1104.31,746.98 1104.06,742.98 1102.62,744.11 1102.75,746.11 1102.84,746.16"/>
    </edge>
    <edge id=":12194831870_w0" function="walkingarea">
        <lane id=":12194831870_w0_0" index="0" allow="pedestrian" speed="2.78" length="3.88" width="4.00" shape="1110.73,747.10 1113.73,746.91 1115.15,745.22 1114.96,743.22 1113.41,741.87 1110.41,742.05 1110.45,742.58 1110.70,746.57"/>
    </edge>
    <edge id=":12194831870_w1" function="walkingarea">
        <lane id=":12194831870_w1_0" index="0" allow="pedestrian" speed="2.78" length="1.50" width="4.00" shape="1104.31,746.98 1104.06,742.98 1102.62,744.11 1102.75,746.11"/>
    </edge>
    <edge id=":12194887678_w0" function="walkingarea">
        <lane id=":12194887678_w0_0" index="0" allow="pedestrian" speed="2.78" length="5.05" width="2.00" shape="1122.58,378.98 1122.55,376.99 1121.85,376.90 1121.72,376.78 1121.75,376.60 1121.92,376.38 1122.24,376.10 1121.03,374.51 1115.96,378.37 1117.17,379.96 1118.94,378.98 1119.67,378.87 1120.44,378.89 1121.38,378.96"/>
    </edge>
    <edge id=":12194887679_w0" function="walkingarea">
        <lane id=":12194887679_w0_0" index="0" allow="pedestrian" speed="2.78" length="5.13" width="2.00" shape="1142.51,363.83 1142.47,361.83 1141.77,361.74 1141.64,361.62 1141.66,361.45 1141.84,361.23 1142.16,360.95 1140.95,359.36 1135.85,363.24 1137.06,364.83 1138.84,363.84 1139.58,363.72 1140.36,363.74 1141.30,363.81"/>
    </edge>
    <edge id=":12194887680_w0" function="walkingarea">
        <lane id=":12194887680_w0_0" index="0" allow="pedestrian" speed="2.78" length="4.28" width="2.00" shape="1107.41,373.69 1107.39,371.69 1106.69,371.59 1106.55,371.45 1106.57,371.27 1106.73,371.03 1107.04,370.73 1105.74,369.20 1101.07,373.15 1102.36,374.68 1103.97,373.69 1104.66,373.57 1105.39,373.59 1106.28,373.65"/>
    </edge>
    <edge id=":12194887681_w0" function="walkingarea">
        <lane id=":12194887681_w0_0" index="0" allow="pedestrian" speed="2.78" length="5.04" width="2.00" shape="1127.25,372.30 1126.04,370.70 1124.29,371.67 1123.57,371.78 1122.80,371.75 1121.88,371.67 1120.69,371.63 1120.70,373.63 1121.40,373.72 1121.53,373.85 1121.50,374.03 1121.33,374.25 1121.01,374.53 1122.22,376.12"/>
    </edge>
    <edge id=":12194887682_0" function="internal">
        <lane id=":12194887682_0_0" index="0" disallow="pedestrian tram rail_urban rail rail_electric rail_fast ship container cable_car subway aircraft wheelchair scooter drone" speed="8.33" length="14.38" shape="1118.00,369.45 1106.73,378.38"/>
    </edge>
    <edge id=":12194887682_1" function="internal">
        <lane id=":12194887682_1_0" index="0" disallow="pedestrian tram rail_urban rail rail_electric rail_fast ship container cable_car subway aircraft wheelchair scooter drone" speed="8.33" length="14.44" shape="1104.72,375.89 1116.04,366.93"/>
    </edge>
    <edge id=":12194887682_c0" function="crossing" crossingEdges="-206566224#0 206566224#0">